@<TRIPOS>MOLECULE
pentane-2,4-dione
   15    14     0     0     0
SMALL
USER_CHARGES

@<TRIPOS>ATOM
      1 C1          0.5996   -2.7609    4.3867 C.3       1 <0>         0.0610
      2 C2          0.5980   -1.3355    3.8969 C.2       1 <0>         0.4480
      3 C3          0.8942   -1.1364    2.4248 C.3       1 <0>         0.1220
      4 C4          0.8956    0.2915    1.9197 C.2       1 <0>         0.4480
      5 C5          1.1917    0.4758    0.4534 C.3       1 <0>         0.0610
      6 O1          0.7073    1.2622    2.6510 O.2       1 <0>        -0.5700
      7 O2          0.3318   -0.4080    4.6593 O.2       1 <0>        -0.5700
      8 H1          1.6046   -3.0363    4.7189 H         1 <0>         0.0000
      9 H2         -0.0913   -2.8596    5.2274 H         1 <0>         0.0000
     10 H3          0.3034   -3.4283    3.5735 H         1 <0>         0.0000
     11 H4          1.8846   -1.5535    2.2132 H         1 <0>         0.0000
     12 H5          0.1388   -1.6990    1.8659 H         1 <0>         0.0000
     13 H6          0.2588    0.4465   -0.1145 H         1 <0>         0.0000
     14 H7          1.6989    1.4312    0.2985 H         1 <0>         0.0000
     15 H8          1.8448   -0.3290    0.1047 H         1 <0>         0.0000
@<TRIPOS>BOND
     1    1    2 1
     2    2    3 1
     3    3    4 1
     4    4    5 1
     5    4    6 2
     6    2    7 2
     7    1    8 1
     8    1    9 1
     9    1   10 1
    10    3   11 1
    11    3   12 1
    12    5   13 1
    13    5   14 1
    14    5   15 1
