@<TRIPOS>MOLECULE
1-phenylethenol
   17    17     0     0     0
SMALL
USER_CHARGES

@<TRIPOS>ATOM
      1 C1          0.9937   -1.5814   -2.3413 C.2       1 <0>        -0.3000
      2 C2          1.9297   -1.0142   -1.5660 C.2       1 <0>         0.0483
      3 C3          1.8851   -1.0363   -0.1124 C.ar      1 <0>         0.0284
      4 C4          2.9210   -1.6309    0.6081 C.ar      1 <0>        -0.1500
      5 C5          2.8783   -1.6520    2.0022 C.ar      1 <0>        -0.1500
      6 C6          1.7997   -1.0786    2.6757 C.ar      1 <0>        -0.1500
      7 C7          0.7638   -0.4841    1.9551 C.ar      1 <0>        -0.1500
      8 C8          0.8066   -0.4630    0.5610 C.ar      1 <0>        -0.1500
      9 O1          3.0310   -0.3753   -2.1035 O.3       1 <0>        -0.5267
     10 H1          1.0711   -1.5461   -3.4234 H         1 <0>         0.1500
     11 H2          0.1361   -2.1030   -1.9295 H         1 <0>         0.1500
     12 H3          3.7685   -2.0820    0.0975 H         1 <0>         0.1500
     13 H4          3.6847   -2.1151    2.5634 H         1 <0>         0.1500
     14 H5          1.7663   -1.0951    3.7611 H         1 <0>         0.1500
     15 H6         -0.0759   -0.0376    2.4796 H         1 <0>         0.1500
     16 H7         -0.0085    0.0041    0.0133 H         1 <0>         0.1500
     17 H8          2.9935   -0.4164   -3.0637 H         1 <0>         0.4500
@<TRIPOS>BOND
     1    1    2 2
     2    2    3 1
     3    3    8 ar
     4    3    4 ar
     5    4    5 ar
     6    5    6 ar
     7    6    7 ar
     8    7    8 ar
     9    2    9 1
    10    1   10 1
    11    1   11 1
    12    4   12 1
    13    5   13 1
    14    6   14 1
    15    7   15 1
    16    8   16 1
    17    9   17 1
