@<TRIPOS>MOLECULE
1~{H}-quinolin-4-one
   18    19     0     0     0
SMALL
USER_CHARGES

@<TRIPOS>ATOM
      1 O1          3.6646   -1.2821   -4.7068 O.2       1 <0>        -0.5700
      2 C1          2.4472   -1.3191   -4.5826 C.2       1 <0>         0.4694
      3 C2          1.7768   -0.9501   -3.3051 C.ar      1 <0>         0.0862
      4 C3          2.5342   -0.5450   -2.2033 C.ar      1 <0>        -0.1500
      5 C4          1.8883   -0.2039   -1.0152 C.ar      1 <0>        -0.1500
      6 C5          0.4969   -0.2668   -0.9285 C.ar      1 <0>        -0.1500
      7 C6         -0.2594   -0.6715   -2.0302 C.ar      1 <0>        -0.1500
      8 C7          0.3721   -1.0168   -3.2289 C.ar      1 <0>         0.1000
      9 N1         -0.3661   -1.4261   -4.3462 N.pl3     1 <0>        -0.6000
     10 C8          0.2556   -1.7626   -5.5149 C.2       1 <0>        -0.0500
     11 C9          1.5778   -1.7409   -5.7143 C.2       1 <0>        -0.1356
     12 H1          3.6179   -0.4899   -2.2513 H         1 <0>         0.1500
     13 H2          2.4701    0.1119   -0.1540 H         1 <0>         0.1500
     14 H3          0.0001    0.0001   -0.0000 H         1 <0>         0.1500
     15 H4         -1.3423   -0.7148   -1.9451 H         1 <0>         0.1500
     16 H5         -1.3748   -1.4754   -4.2972 H         1 <0>         0.4000
     17 H6         -0.4319   -2.0600   -6.2977 H         1 <0>         0.1500
     18 H7          2.0320   -2.0157   -6.6574 H         1 <0>         0.1500
@<TRIPOS>BOND
     1    1    2 2
     2    2   11 1
     3    2    3 1
     4    3    4 ar
     5    4    5 ar
     6    5    6 ar
     7    6    7 ar
     8    7    8 ar
     9    3    8 ar
    10    8    9 1
    11    9   10 1
    12   10   11 2
    13    4   12 1
    14    5   13 1
    15    6   14 1
    16    7   15 1
    17    9   16 1
    18   10   17 1
    19   11   18 1
