@<TRIPOS>MOLECULE
quinolin-4-ol
   18    19     0     0     0
SMALL
USER_CHARGES

@<TRIPOS>ATOM
      1 O1         -2.1168    5.5350   -1.5224 O.3       1 <0>        -0.5325
      2 C1         -2.7151    4.3237   -1.3301 C.ar      1 <0>         0.0825
      3 C2         -4.0902    4.2376   -1.4936 C.ar      1 <0>        -0.1500
      4 C3         -4.6804    3.0058   -1.2959 C.ar      1 <0>         0.1600
      5 N1         -4.0027    1.8858   -0.9548 N.ar      1 <0>        -0.6200
      6 C4         -2.6683    1.9725   -0.7968 C.ar      1 <0>         0.3100
      7 C5         -1.9323    0.8440   -0.4461 C.ar      1 <0>        -0.1500
      8 C6         -0.5469    0.8976   -0.2738 C.ar      1 <0>        -0.1500
      9 C7          0.1298    2.0977   -0.4527 C.ar      1 <0>        -0.1500
     10 C8         -0.5812    3.2417   -0.8037 C.ar      1 <0>        -0.1500
     11 C9         -1.9747    3.1875   -0.9770 C.ar      1 <0>         0.0000
     12 H1         -2.7755    6.2106   -1.7614 H         1 <0>         0.4500
     13 H2         -4.6848    5.1021   -1.7667 H         1 <0>         0.1500
     14 H3         -5.7520    2.8782   -1.4091 H         1 <0>         0.1500
     15 H4         -2.4387   -0.1084   -0.3001 H         1 <0>         0.1500
     16 H5          0.0006    0.0004    0.0003 H         1 <0>         0.1500
     17 H6          1.2064    2.1433   -0.3200 H         1 <0>         0.1500
     18 H7         -0.0323    4.1706   -0.9391 H         1 <0>         0.1500
@<TRIPOS>BOND
     1    1    2 1
     2    2   11 ar
     3    2    3 ar
     4    3    4 ar
     5    4    5 ar
     6    5    6 ar
     7    6   11 ar
     8    6    7 ar
     9    7    8 ar
    10    8    9 ar
    11    9   10 ar
    12   10   11 ar
    13    1   12 1
    14    3   13 1
    15    4   14 1
    16    7   15 1
    17    8   16 1
    18    9   17 1
    19   10   18 1
