@<TRIPOS>MOLECULE
1-phenylethanone
   17    17     0     0     0
SMALL
USER_CHARGES

@<TRIPOS>ATOM
      1 C1          0.6193   -1.0318   -2.2887 C.3       1 <0>         0.0610
      2 C2          1.9292   -1.0155   -1.5659 C.2       1 <0>         0.4228
      3 C3          1.8851   -1.0363   -0.1124 C.ar      1 <0>         0.0862
      4 C4          2.9210   -1.6309    0.6081 C.ar      1 <0>        -0.1500
      5 C5          2.8783   -1.6520    2.0022 C.ar      1 <0>        -0.1500
      6 C6          1.7997   -1.0786    2.6757 C.ar      1 <0>        -0.1500
      7 C7          0.7638   -0.4841    1.9551 C.ar      1 <0>        -0.1500
      8 C8          0.8066   -0.4630    0.5610 C.ar      1 <0>        -0.1500
      9 O1          2.9600   -0.9905   -2.2303 O.2       1 <0>        -0.5700
     10 H1          0.2046   -0.0319   -2.4927 H         1 <0>         0.0000
     11 H2         -0.1581   -1.6117   -1.7676 H         1 <0>         0.0000
     12 H3          0.6866   -1.4969   -3.2884 H         1 <0>         0.0000
     13 H4          3.7660   -2.0811    0.0935 H         1 <0>         0.1500
     14 H5          3.6850   -2.1145    2.5633 H         1 <0>         0.1500
     15 H6          1.7660   -1.0948    3.7610 H         1 <0>         0.1500
     16 H7         -0.0760   -0.0384    2.4800 H         1 <0>         0.1500
     17 H8         -0.0059    0.0036    0.0099 H         1 <0>         0.1500
@<TRIPOS>BOND
     1    1    2 1
     2    2    3 1
     3    3    8 ar
     4    3    4 ar
     5    4    5 ar
     6    5    6 ar
     7    6    7 ar
     8    7    8 ar
     9    2    9 2
    10    1   10 1
    11    1   11 1
    12    1   12 1
    13    4   13 1
    14    5   14 1
    15    6   15 1
    16    7   16 1
    17    8   17 1
