@<TRIPOS>MOLECULE
anthracen-9-ol
   25    27     0     0     0
SMALL
USER_CHARGES

@<TRIPOS>ATOM
      1 O1          1.0135    5.9307   -0.9926 O.3       1 <0>        -0.5325
      2 C1         -0.1545    5.2157   -0.9250 C.ar      1 <0>         0.0825
      3 C2         -0.1017    3.8335   -0.6793 C.ar      1 <0>         0.0000
      4 C3          1.1224    3.1676   -0.5010 C.ar      1 <0>        -0.1500
      5 C4          1.1582    1.7944   -0.2577 C.ar      1 <0>        -0.1500
      6 C5         -0.0270    1.0691   -0.1893 C.ar      1 <0>        -0.1500
      7 C6         -1.2510    1.7151   -0.3642 C.ar      1 <0>        -0.1500
      8 C7         -1.3047    3.0972   -0.6099 C.ar      1 <0>         0.0000
      9 C8         -2.5292    3.7624   -0.7882 C.ar      1 <0>        -0.1500
     10 C9         -2.5821    5.1446   -1.0340 C.ar      1 <0>         0.0000
     11 C10        -3.8061    5.8105   -1.2124 C.ar      1 <0>        -0.1500
     12 C11        -3.8419    7.1837   -1.4556 C.ar      1 <0>        -0.1500
     13 C12        -2.6567    7.9090   -1.5237 C.ar      1 <0>        -0.1500
     14 C13        -1.4327    7.2630   -1.3489 C.ar      1 <0>        -0.1500
     15 C14        -1.3790    5.8808   -1.1032 C.ar      1 <0>         0.0000
     16 H1          1.7818    5.3498   -0.8520 H         1 <0>         0.4500
     17 H2          2.0684    3.7023   -0.5474 H         1 <0>         0.1500
     18 H3          2.1115    1.2922   -0.1212 H         1 <0>         0.1500
     19 H4          0.0001    0.0001    0.0000 H         1 <0>         0.1500
     20 H5         -2.1653    1.1279   -0.3068 H         1 <0>         0.1500
     21 H6         -3.4580    3.1943   -0.7347 H         1 <0>         0.1500
     22 H7         -4.7452    5.2630   -1.1628 H         1 <0>         0.1500
     23 H8         -4.7951    7.6861   -1.5915 H         1 <0>         0.1500
     24 H9         -2.6836    8.9780   -1.7138 H         1 <0>         0.1500
     25 H10        -0.5265    7.8618   -1.4089 H         1 <0>         0.1500
@<TRIPOS>BOND
     1    1    2 1
     2    2   15 ar
     3    2    3 ar
     4    3    4 ar
     5    4    5 ar
     6    5    6 ar
     7    6    7 ar
     8    7    8 ar
     9    3    8 ar
    10    8    9 ar
    11    9   10 ar
    12   10   15 ar
    13   10   11 ar
    14   11   12 ar
    15   12   13 ar
    16   13   14 ar
    17   14   15 ar
    18    1   16 1
    19    4   17 1
    20    5   18 1
    21    6   19 1
    22    7   20 1
    23    9   21 1
    24   11   22 1
    25   12   23 1
    26   13   24 1
    27   14   25 1
