@<TRIPOS>MOLECULE
10~{H}-anthracen-9-one
   25    27     0     0     0
SMALL
USER_CHARGES

@<TRIPOS>ATOM
      1 O1         -3.5992    1.1295    3.0404 O.2       1 <0>        -0.5700
      2 C1         -3.5271   -0.0933    3.0128 C.2       1 <0>         0.3976
      3 C2         -4.4534   -0.9127    3.8233 C.ar      1 <0>         0.0862
      4 C3         -4.3668   -2.3086    3.7901 C.ar      1 <0>        -0.1435
      5 C4         -3.3511   -3.0328    2.9500 C.3       1 <0>         0.2870
      6 C5         -5.2599   -3.0606    4.5696 C.ar      1 <0>        -0.1500
      7 C6         -6.2182   -2.4310    5.3641 C.ar      1 <0>        -0.1500
      8 C7         -6.2954   -1.0413    5.3897 C.ar      1 <0>        -0.1500
      9 C8         -5.4157   -0.2797    4.6213 C.ar      1 <0>        -0.1500
     10 C9         -2.5138   -0.7612    2.1680 C.ar      1 <0>         0.0862
     11 C10        -2.4339   -2.1576    2.1409 C.ar      1 <0>        -0.1435
     12 C11        -1.4620   -2.7639    1.3294 C.ar      1 <0>        -0.1500
     13 C12        -0.5899   -1.9913    0.5622 C.ar      1 <0>        -0.1500
     14 C13        -0.6785   -0.6025    0.5967 C.ar      1 <0>        -0.1500
     15 C14        -1.6382    0.0153    1.3976 C.ar      1 <0>        -0.1500
     16 H1         -2.7353   -3.6514    3.6151 H         1 <0>         0.0000
     17 H2         -3.8892   -3.6945    2.2588 H         1 <0>         0.0000
     18 H3         -5.2106   -4.1469    4.5609 H         1 <0>         0.1500
     19 H4         -6.9036   -3.0250    5.9616 H         1 <0>         0.1500
     20 H5         -7.0416   -0.5504    6.0075 H         1 <0>         0.1500
     21 H6         -5.4966    0.8034    4.6564 H         1 <0>         0.1500
     22 H7         -1.3808   -3.8477    1.2924 H         1 <0>         0.1500
     23 H8          0.1570   -2.4734   -0.0616 H         1 <0>         0.1500
     24 H9          0.0007   -0.0003    0.0004 H         1 <0>         0.1500
     25 H10        -1.6880    1.1009    1.4078 H         1 <0>         0.1500
@<TRIPOS>BOND
     1    1    2 2
     2    2    3 1
     3    3    9 ar
     4    3    4 ar
     5    4    5 1
     6    5   11 1
     7    4    6 ar
     8    6    7 ar
     9    7    8 ar
    10    8    9 ar
    11    2   10 1
    12   10   15 ar
    13   10   11 ar
    14   11   12 ar
    15   12   13 ar
    16   13   14 ar
    17   14   15 ar
    18    5   16 1
    19    5   17 1
    20    6   18 1
    21    7   19 1
    22    8   20 1
    23    9   21 1
    24   12   22 1
    25   13   23 1
    26   14   24 1
    27   15   25 1
