@<TRIPOS>MOLECULE
1-(2-hydroxycyclopenten-1-yl)ethanone
   19    19     0     0     0
SMALL
USER_CHARGES

@<TRIPOS>ATOM
      1 C1         -1.8766    2.4738    1.0936 C.3       1 <0>         0.0610
      2 C2         -0.7653    2.0306    0.1830 C.2       1 <0>         0.4946
      3 C3         -0.3337    0.6455    0.2667 C.2       1 <0>        -0.1238
      4 C4         -0.4040   -0.1607    1.5173 C.3       1 <0>         0.1382
      5 C5          0.4605   -1.3786    1.1717 C.3       1 <0>         0.0000
      6 C6          0.5172   -1.4532   -0.3577 C.3       1 <0>         0.1382
      7 C7          0.1665   -0.0590   -0.7512 C.2       1 <0>        -0.0615
      8 O1          0.3588    0.3754   -2.0298 O.3       1 <0>        -0.5267
      9 O2         -0.2336    2.7973   -0.6161 O.2       1 <0>        -0.5700
     10 H1         -1.4884    2.8474    2.0449 H         1 <0>         0.0000
     11 H2         -2.5371    1.6261    1.2935 H         1 <0>         0.0000
     12 H3         -2.4357    3.2798    0.6108 H         1 <0>         0.0000
     13 H4         -0.0025    0.3722    2.3845 H         1 <0>         0.0000
     14 H5         -1.4378   -0.4559    1.7261 H         1 <0>         0.0000
     15 H6          1.4734   -1.2357    1.5710 H         1 <0>         0.0000
     16 H7          0.0676   -2.3000    1.6137 H         1 <0>         0.0000
     17 H8          1.5138   -1.7476   -0.6996 H         1 <0>         0.0000
     18 H9         -0.2211   -2.1599   -0.7504 H         1 <0>         0.0000
     19 H10         0.0790    1.2973   -2.1241 H         1 <0>         0.4500
@<TRIPOS>BOND
     1    1    2 1
     2    2    3 1
     3    3    4 1
     4    4    5 1
     5    5    6 1
     6    6    7 1
     7    3    7 2
     8    7    8 1
     9    2    9 2
    10    1   10 1
    11    1   11 1
    12    1   12 1
    13    4   13 1
    14    4   14 1
    15    5   15 1
    16    5   16 1
    17    6   17 1
    18    6   18 1
    19    8   19 1
