@<TRIPOS>MOLECULE
(2~{Z})-2-(1-hydroxyethylidene)cyclopentanone
   19    19     0     0     0
SMALL
USER_CHARGES

@<TRIPOS>ATOM
      1 C1          0.0986   -0.4731   -0.9741 C.3       1 <0>         0.1382
      2 C2          1.0800   -0.0659    0.0773 C.2       1 <0>        -0.0615
      3 O1          1.1781   -0.8981    1.1754 O.3       1 <0>        -0.5267
      4 C3          1.8348    1.0303   -0.0018 C.2       1 <0>        -0.1238
      5 C4          1.8830    2.0546   -1.0886 C.3       1 <0>         0.1382
      6 C5          2.3692    3.3046   -0.3567 C.3       1 <0>         0.0000
      7 C6          3.3311    2.8201    0.7290 C.3       1 <0>         0.0610
      8 C7          2.7631    1.4722    1.0732 C.2       1 <0>         0.4946
      9 O2          3.0472    0.8222    2.0663 O.2       1 <0>        -0.5700
     10 H1         -0.8955   -0.0510   -0.7936 H         1 <0>         0.0000
     11 H2          0.4345   -0.1321   -1.9586 H         1 <0>         0.0000
     12 H3          0.0010   -1.5632   -0.9992 H         1 <0>         0.0000
     13 H4          1.8322   -0.5506    1.7894 H         1 <0>         0.4500
     14 H5          2.6075    1.7545   -1.8538 H         1 <0>         0.0000
     15 H6          0.9112    2.2217   -1.5624 H         1 <0>         0.0000
     16 H7          2.8473    4.0181   -1.0351 H         1 <0>         0.0000
     17 H8          1.5160    3.8152    0.1093 H         1 <0>         0.0000
     18 H9          4.3467    2.6954    0.3427 H         1 <0>         0.0000
     19 H10         3.3243    3.4865    1.5947 H         1 <0>         0.0000
@<TRIPOS>BOND
     1    1    2 1
     2    2    3 1
     3    2    4 2
     4    4    5 1
     5    5    6 1
     6    6    7 1
     7    7    8 1
     8    4    8 1
     9    8    9 2
    10    1   10 1
    11    1   11 1
    12    1   12 1
    13    3   13 1
    14    5   14 1
    15    5   15 1
    16    6   16 1
    17    6   17 1
    18    7   18 1
    19    7   19 1
