@<TRIPOS>MOLECULE
(~{Z})-4-hydroxypent-3-en-2-one
   15    14     0     0     0
SMALL
USER_CHARGES

@<TRIPOS>ATOM
      1 C1          2.0839    0.0645    1.5383 C.3       1 <0>         0.0610
      2 C2          0.9330    0.6762    0.7834 C.2       1 <0>         0.4946
      3 C3          0.0808   -0.2625   -0.0028 C.2       1 <0>        -0.1356
      4 C4         -0.9846    0.1078   -0.7336 C.2       1 <0>        -0.0615
      5 C5         -1.8026   -0.8815   -1.5038 C.3       1 <0>         0.1382
      6 O1         -1.4389    1.4033   -0.8560 O.3       1 <0>        -0.5267
      7 O2          0.7363    1.8884    0.7993 O.2       1 <0>        -0.5700
      8 H1          2.9709    0.0507    0.9001 H         1 <0>         0.0000
      9 H2          2.2830    0.6587    2.4348 H         1 <0>         0.0000
     10 H3          1.8445   -0.9528    1.8600 H         1 <0>         0.0000
     11 H4          0.3672   -1.3097    0.0405 H         1 <0>         0.1500
     12 H5         -2.6166   -1.2653   -0.8804 H         1 <0>         0.0000
     13 H6         -1.2089   -1.7362   -1.8445 H         1 <0>         0.0000
     14 H7         -2.2395   -0.4037   -2.3868 H         1 <0>         0.0000
     15 H8         -0.8809    1.9968   -0.3423 H         1 <0>         0.4500
@<TRIPOS>BOND
     1    1    2 1
     2    2    3 1
     3    3    4 2
     4    4    5 1
     5    4    6 1
     6    2    7 2
     7    1    8 1
     8    1    9 1
     9    1   10 1
    10    3   11 1
    11    5   12 1
    12    5   13 1
    13    5   14 1
    14    6   15 1
